
#======================================================================
# CRYSTAL DATA
#----------------------------------------------------------------------
data_VESTA_phase_1

_chemical_name_common                  'XCrySDen XSF file'
_cell_length_a                         32.169601
_cell_length_b                         34.723202
_cell_length_c                         7.466110
_cell_angle_alpha                      90.000000
_cell_angle_beta                       130.420013
_cell_angle_gamma                      90.000000
_cell_volume                           6349.250243
_space_group_name_H-M_alt              'P 1'
_space_group_IT_number                 1

loop_
_space_group_symop_operation_xyz
   'x, y, z'

loop_
   _atom_site_label
   _atom_site_occupancy
   _atom_site_fract_x
   _atom_site_fract_y
   _atom_site_fract_z
   _atom_site_adp_type
   _atom_site_U_iso_or_equiv
   _atom_site_type_symbol
   O1         1.0     0.553935     0.216896     0.708377    Uiso  ? O
   O2         1.0     0.553935     0.550229     0.708377    Uiso  ? O
   O3         1.0     0.553935     0.883563     0.708377    Uiso  ? O
   O4         1.0     0.887268     0.216896     0.708377    Uiso  ? O
   O5         1.0     0.887268     0.550229     0.708377    Uiso  ? O
   O6         1.0     0.887268     0.883563     0.708377    Uiso  ? O
   O7         1.0     0.220601     0.216896     0.708377    Uiso  ? O
   O8         1.0     0.220601     0.550229     0.708377    Uiso  ? O
   O9         1.0     0.220601     0.883563     0.708377    Uiso  ? O
   O10        1.0     0.581868     0.158226     0.767177    Uiso  ? O
   O11        1.0     0.581868     0.491559     0.767177    Uiso  ? O
   O12        1.0     0.581868     0.824893     0.767177    Uiso  ? O
   O13        1.0     0.915201     0.158226     0.767177    Uiso  ? O
   O14        1.0     0.915201     0.491559     0.767177    Uiso  ? O
   O15        1.0     0.915201     0.824893     0.767177    Uiso  ? O
   O16        1.0     0.248534     0.158226     0.767177    Uiso  ? O
   O17        1.0     0.248534     0.491559     0.767177    Uiso  ? O
   O18        1.0     0.248534     0.824893     0.767177    Uiso  ? O
   N1         1.0     0.546368     0.182056     0.706377    Uiso  ? N
   N2         1.0     0.546368     0.515389     0.706377    Uiso  ? N
   N3         1.0     0.546368     0.848723     0.706377    Uiso  ? N
   N4         1.0     0.879701     0.182056     0.706377    Uiso  ? N
   N5         1.0     0.879701     0.515389     0.706377    Uiso  ? N
   N6         1.0     0.879701     0.848723     0.706377    Uiso  ? N
   N7         1.0     0.213034     0.182056     0.706377    Uiso  ? N
   N8         1.0     0.213034     0.515389     0.706377    Uiso  ? N
   N9         1.0     0.213034     0.848723     0.706377    Uiso  ? N
   C1         1.0     0.396541     0.142294     0.490275    Uiso  ? C
   C2         1.0     0.396541     0.475627     0.490275    Uiso  ? C
   C3         1.0     0.396541     0.808961     0.490275    Uiso  ? C
   C4         1.0     0.729874     0.142294     0.490275    Uiso  ? C
   C5         1.0     0.729874     0.475627     0.490275    Uiso  ? C
   C6         1.0     0.729874     0.808961     0.490275    Uiso  ? C
   C7         1.0     0.063207     0.142294     0.490275    Uiso  ? C
   C8         1.0     0.063207     0.475627     0.490275    Uiso  ? C
   C9         1.0     0.063207     0.808961     0.490275    Uiso  ? C
   C10        1.0     0.405334     0.182260     0.494675    Uiso  ? C
   C11        1.0     0.405334     0.515593     0.494675    Uiso  ? C
   C12        1.0     0.405334     0.848927     0.494675    Uiso  ? C
   C13        1.0     0.738667     0.182260     0.494675    Uiso  ? C
   C14        1.0     0.738667     0.515593     0.494675    Uiso  ? C
   C15        1.0     0.738667     0.848927     0.494675    Uiso  ? C
   C16        1.0     0.072000     0.182260     0.494675    Uiso  ? C
   C17        1.0     0.072000     0.515593     0.494675    Uiso  ? C
   C18        1.0     0.072000     0.848927     0.494675    Uiso  ? C
   C19        1.0     0.454842     0.194960     0.565378    Uiso  ? C
   C20        1.0     0.454842     0.528293     0.565378    Uiso  ? C
   C21        1.0     0.454842     0.861627     0.565378    Uiso  ? C
   C22        1.0     0.788175     0.194960     0.565378    Uiso  ? C
   C23        1.0     0.788175     0.528293     0.565378    Uiso  ? C
   C24        1.0     0.788175     0.861627     0.565378    Uiso  ? C
   C25        1.0     0.121508     0.194960     0.565378    Uiso  ? C
   C26        1.0     0.121508     0.528293     0.565378    Uiso  ? C
   C27        1.0     0.121508     0.861627     0.565378    Uiso  ? C
   H1         1.0     0.461228     0.221767     0.568038    Uiso  ? H
   H2         1.0     0.461228     0.555100     0.568038    Uiso  ? H
   H3         1.0     0.461228     0.888434     0.568038    Uiso  ? H
   H4         1.0     0.794561     0.221767     0.568038    Uiso  ? H
   H5         1.0     0.794561     0.555100     0.568038    Uiso  ? H
   H6         1.0     0.794561     0.888434     0.568038    Uiso  ? H
   H7         1.0     0.127894     0.221767     0.568038    Uiso  ? H
   H8         1.0     0.127894     0.555100     0.568038    Uiso  ? H
   H9         1.0     0.127894     0.888434     0.568038    Uiso  ? H
   C28        1.0     0.495335     0.168427     0.632678    Uiso  ? C
   C29        1.0     0.495335     0.501760     0.632678    Uiso  ? C
   C30        1.0     0.495335     0.835094     0.632678    Uiso  ? C
   C31        1.0     0.828668     0.168427     0.632678    Uiso  ? C
   C32        1.0     0.828668     0.501760     0.632678    Uiso  ? C
   C33        1.0     0.828668     0.835094     0.632678    Uiso  ? C
   C34        1.0     0.162001     0.168427     0.632678    Uiso  ? C
   C35        1.0     0.162001     0.501760     0.632678    Uiso  ? C
   C36        1.0     0.162001     0.835094     0.632678    Uiso  ? C
   C37        1.0     0.487108     0.128960     0.626878    Uiso  ? C
   C38        1.0     0.487108     0.462293     0.626878    Uiso  ? C
   C39        1.0     0.487108     0.795627     0.626878    Uiso  ? C
   C40        1.0     0.820441     0.128960     0.626878    Uiso  ? C
   C41        1.0     0.820441     0.462293     0.626878    Uiso  ? C
   C42        1.0     0.820441     0.795627     0.626878    Uiso  ? C
   C43        1.0     0.153774     0.128960     0.626878    Uiso  ? C
   C44        1.0     0.153774     0.462293     0.626878    Uiso  ? C
   C45        1.0     0.153774     0.795627     0.626878    Uiso  ? C
   H10        1.0     0.514795     0.111267     0.670338    Uiso  ? H
   H11        1.0     0.514795     0.444600     0.670338    Uiso  ? H
   H12        1.0     0.514795     0.777934     0.670338    Uiso  ? H
   H13        1.0     0.848128     0.111267     0.670338    Uiso  ? H
   H14        1.0     0.848128     0.444600     0.670338    Uiso  ? H
   H15        1.0     0.848128     0.777934     0.670338    Uiso  ? H
   H16        1.0     0.181461     0.111267     0.670338    Uiso  ? H
   H17        1.0     0.181461     0.444600     0.670338    Uiso  ? H
   H18        1.0     0.181461     0.777934     0.670338    Uiso  ? H
   C46        1.0     0.437968     0.116060     0.556678    Uiso  ? C
   C47        1.0     0.437968     0.449393     0.556678    Uiso  ? C
   C48        1.0     0.437968     0.782727     0.556678    Uiso  ? C
   C49        1.0     0.771301     0.116060     0.556678    Uiso  ? C
   C50        1.0     0.771301     0.449393     0.556678    Uiso  ? C
   C51        1.0     0.771301     0.782727     0.556678    Uiso  ? C
   C52        1.0     0.104634     0.116060     0.556678    Uiso  ? C
   C53        1.0     0.104634     0.449393     0.556678    Uiso  ? C
   C54        1.0     0.104634     0.782727     0.556678    Uiso  ? C
   H19        1.0     0.431895     0.089200     0.552838    Uiso  ? H
   H20        1.0     0.431895     0.422533     0.552838    Uiso  ? H
   H21        1.0     0.431895     0.755867     0.552838    Uiso  ? H
   H22        1.0     0.765228     0.089200     0.552838    Uiso  ? H
   H23        1.0     0.765228     0.422533     0.552838    Uiso  ? H
   H24        1.0     0.765228     0.755867     0.552838    Uiso  ? H
   H25        1.0     0.098561     0.089200     0.552838    Uiso  ? H
   H26        1.0     0.098561     0.422533     0.552838    Uiso  ? H
   H27        1.0     0.098561     0.755867     0.552838    Uiso  ? H
