
#======================================================================
# CRYSTAL DATA
#----------------------------------------------------------------------
data_VESTA_phase_1

_chemical_name_common                  'XCrySDen XSF file'
_cell_length_a                         32.169601
_cell_length_b                         34.723202
_cell_length_c                         4.656890
_cell_angle_alpha                      90.000000
_cell_angle_beta                       130.420029
_cell_angle_gamma                      90.000000
_cell_volume                           3960.262012
_space_group_name_H-M_alt              'P 1'
_space_group_IT_number                 1

loop_
_space_group_symop_operation_xyz
   'x, y, z'

loop_
   _atom_site_label
   _atom_site_occupancy
   _atom_site_fract_x
   _atom_site_fract_y
   _atom_site_fract_z
   _atom_site_adp_type
   _atom_site_U_iso_or_equiv
   _atom_site_type_symbol
   O1         1.0     0.635249     0.175107     0.909657    Uiso  ? O
   O2         1.0     0.607316     0.116437     0.815387    Uiso  ? O
   N1         1.0     0.599749     0.151277     0.812180    Uiso  ? N
   H1         1.0     0.568176     0.222067     0.754400    Uiso  ? H
   C1         1.0     0.548716     0.164907     0.694022    Uiso  ? C
   C2         1.0     0.540489     0.204374     0.684723    Uiso  ? C
   H2         1.0     0.514609     0.111567     0.590388    Uiso  ? H
   C3         1.0     0.508222     0.138374     0.586124    Uiso  ? C
   C4         1.0     0.491349     0.217274     0.572176    Uiso  ? C
   H3         1.0     0.485276     0.244134     0.566019    Uiso  ? H
   H4         1.0     0.403875     0.127634     0.510547    Uiso  ? H
   C5         1.0     0.458716     0.151074     0.472775    Uiso  ? C
   C6         1.0     0.449922     0.191040     0.465721    Uiso  ? C
   H5         1.0     0.427742     0.096767     0.395114    Uiso  ? H
   C7         1.0     0.414356     0.123207     0.357182    Uiso  ? C
   N2         1.0     0.401716     0.204727     0.350288    Uiso  ? N
   H6         1.0     0.396509     0.229734     0.342208    Uiso  ? H
   H7         1.0     0.375642     0.188634     0.283209    Uiso  ? H
   H8         1.0     0.382542     0.127100     0.090340    Uiso  ? H
   O3         1.0     0.635249     0.508441     0.909657    Uiso  ? O
   O4         1.0     0.607316     0.449771     0.815387    Uiso  ? O
   N3         1.0     0.599749     0.484611     0.812180    Uiso  ? N
   H9         1.0     0.568176     0.555401     0.754400    Uiso  ? H
   C8         1.0     0.548716     0.498241     0.694022    Uiso  ? C
   C9         1.0     0.540489     0.537707     0.684723    Uiso  ? C
   H10        1.0     0.514609     0.444901     0.590388    Uiso  ? H
   C10        1.0     0.508222     0.471707     0.586124    Uiso  ? C
   C11        1.0     0.491349     0.550607     0.572176    Uiso  ? C
   H11        1.0     0.485276     0.577467     0.566019    Uiso  ? H
   H12        1.0     0.403875     0.460967     0.510547    Uiso  ? H
   C12        1.0     0.458716     0.484408     0.472775    Uiso  ? C
   C13        1.0     0.449922     0.524374     0.465721    Uiso  ? C
   H13        1.0     0.427742     0.430101     0.395114    Uiso  ? H
   C14        1.0     0.414356     0.456541     0.357182    Uiso  ? C
   N4         1.0     0.401716     0.538061     0.350288    Uiso  ? N
   H14        1.0     0.396509     0.563067     0.342208    Uiso  ? H
   H15        1.0     0.375642     0.521967     0.283209    Uiso  ? H
   H16        1.0     0.382542     0.460434     0.090340    Uiso  ? H
   O5         1.0     0.635249     0.841775     0.909657    Uiso  ? O
   O6         1.0     0.607316     0.783105     0.815387    Uiso  ? O
   N5         1.0     0.599749     0.817945     0.812180    Uiso  ? N
   H17        1.0     0.568176     0.888735     0.754400    Uiso  ? H
   C15        1.0     0.548716     0.831574     0.694022    Uiso  ? C
   C16        1.0     0.540489     0.871041     0.684723    Uiso  ? C
   H18        1.0     0.514609     0.778234     0.590388    Uiso  ? H
   C17        1.0     0.508222     0.805041     0.586124    Uiso  ? C
   C18        1.0     0.491349     0.883941     0.572176    Uiso  ? C
   H19        1.0     0.485276     0.910801     0.566019    Uiso  ? H
   H20        1.0     0.403875     0.794301     0.510547    Uiso  ? H
   C19        1.0     0.458716     0.817742     0.472775    Uiso  ? C
   C20        1.0     0.449922     0.857708     0.465721    Uiso  ? C
   H21        1.0     0.427742     0.763434     0.395114    Uiso  ? H
   C21        1.0     0.414356     0.789874     0.357182    Uiso  ? C
   N6         1.0     0.401716     0.871395     0.350288    Uiso  ? N
   H22        1.0     0.396509     0.896401     0.342208    Uiso  ? H
   H23        1.0     0.375642     0.855301     0.283209    Uiso  ? H
   H24        1.0     0.382542     0.793768     0.090340    Uiso  ? H
   O7         1.0     0.968583     0.175107     0.909657    Uiso  ? O
   O8         1.0     0.940649     0.116437     0.815387    Uiso  ? O
   N7         1.0     0.933083     0.151277     0.812180    Uiso  ? N
   H25        1.0     0.901509     0.222067     0.754400    Uiso  ? H
   C22        1.0     0.882049     0.164907     0.694022    Uiso  ? C
   C23        1.0     0.873823     0.204374     0.684723    Uiso  ? C
   H26        1.0     0.847943     0.111567     0.590388    Uiso  ? H
   C24        1.0     0.841556     0.138374     0.586124    Uiso  ? C
   C25        1.0     0.824683     0.217274     0.572176    Uiso  ? C
   H27        1.0     0.818609     0.244134     0.566019    Uiso  ? H
   H28        1.0     0.737209     0.127634     0.510547    Uiso  ? H
   C26        1.0     0.792049     0.151074     0.472775    Uiso  ? C
   C27        1.0     0.783256     0.191040     0.465721    Uiso  ? C
   H29        1.0     0.761076     0.096767     0.395114    Uiso  ? H
   C28        1.0     0.747689     0.123207     0.357182    Uiso  ? C
   N8         1.0     0.735049     0.204727     0.350288    Uiso  ? N
   H30        1.0     0.729843     0.229734     0.342208    Uiso  ? H
   H31        1.0     0.708976     0.188634     0.283209    Uiso  ? H
   H32        1.0     0.715876     0.127100     0.090340    Uiso  ? H
   O9         1.0     0.968583     0.508441     0.909657    Uiso  ? O
   O10        1.0     0.940649     0.449771     0.815387    Uiso  ? O
   N9         1.0     0.933083     0.484611     0.812180    Uiso  ? N
   H33        1.0     0.901509     0.555401     0.754400    Uiso  ? H
   C29        1.0     0.882049     0.498241     0.694022    Uiso  ? C
   C30        1.0     0.873823     0.537707     0.684723    Uiso  ? C
   H34        1.0     0.847943     0.444901     0.590388    Uiso  ? H
   C31        1.0     0.841556     0.471707     0.586124    Uiso  ? C
   C32        1.0     0.824683     0.550607     0.572176    Uiso  ? C
   H35        1.0     0.818609     0.577467     0.566019    Uiso  ? H
   H36        1.0     0.737209     0.460967     0.510547    Uiso  ? H
   C33        1.0     0.792049     0.484408     0.472775    Uiso  ? C
   C34        1.0     0.783256     0.524374     0.465721    Uiso  ? C
   H37        1.0     0.761076     0.430101     0.395114    Uiso  ? H
   C35        1.0     0.747689     0.456541     0.357182    Uiso  ? C
   N10        1.0     0.735049     0.538061     0.350288    Uiso  ? N
   H38        1.0     0.729843     0.563067     0.342208    Uiso  ? H
   H39        1.0     0.708976     0.521967     0.283209    Uiso  ? H
   H40        1.0     0.715876     0.460434     0.090340    Uiso  ? H
   O11        1.0     0.968583     0.841775     0.909657    Uiso  ? O
   O12        1.0     0.940649     0.783105     0.815387    Uiso  ? O
   N11        1.0     0.933083     0.817945     0.812180    Uiso  ? N
   H41        1.0     0.901509     0.888735     0.754400    Uiso  ? H
   C36        1.0     0.882049     0.831574     0.694022    Uiso  ? C
   C37        1.0     0.873823     0.871041     0.684723    Uiso  ? C
   H42        1.0     0.847943     0.778234     0.590388    Uiso  ? H
   C38        1.0     0.841556     0.805041     0.586124    Uiso  ? C
   C39        1.0     0.824683     0.883941     0.572176    Uiso  ? C
   H43        1.0     0.818609     0.910801     0.566019    Uiso  ? H
   H44        1.0     0.737209     0.794301     0.510547    Uiso  ? H
   C40        1.0     0.792049     0.817742     0.472775    Uiso  ? C
   C41        1.0     0.783256     0.857708     0.465721    Uiso  ? C
   H45        1.0     0.761076     0.763434     0.395114    Uiso  ? H
   C42        1.0     0.747689     0.789874     0.357182    Uiso  ? C
   N12        1.0     0.735049     0.871395     0.350288    Uiso  ? N
   H46        1.0     0.729843     0.896401     0.342208    Uiso  ? H
   H47        1.0     0.708976     0.855301     0.283209    Uiso  ? H
   H48        1.0     0.715876     0.793768     0.090340    Uiso  ? H
   O13        1.0     0.301915     0.175107     0.909657    Uiso  ? O
   O14        1.0     0.273982     0.116437     0.815387    Uiso  ? O
   N13        1.0     0.266415     0.151277     0.812180    Uiso  ? N
   H49        1.0     0.234842     0.222067     0.754400    Uiso  ? H
   C43        1.0     0.215382     0.164907     0.694022    Uiso  ? C
   C44        1.0     0.207155     0.204374     0.684723    Uiso  ? C
   H50        1.0     0.181275     0.111567     0.590388    Uiso  ? H
   C45        1.0     0.174888     0.138374     0.586124    Uiso  ? C
   C46        1.0     0.158015     0.217274     0.572176    Uiso  ? C
   H51        1.0     0.151942     0.244134     0.566019    Uiso  ? H
   H52        1.0     0.070542     0.127634     0.510547    Uiso  ? H
   C47        1.0     0.125382     0.151074     0.472775    Uiso  ? C
   C48        1.0     0.116588     0.191040     0.465721    Uiso  ? C
   H53        1.0     0.094408     0.096767     0.395114    Uiso  ? H
   C49        1.0     0.081022     0.123207     0.357182    Uiso  ? C
   N14        1.0     0.068382     0.204727     0.350288    Uiso  ? N
   H54        1.0     0.063175     0.229734     0.342208    Uiso  ? H
   H55        1.0     0.042308     0.188634     0.283209    Uiso  ? H
   H56        1.0     0.049209     0.127100     0.090340    Uiso  ? H
   O15        1.0     0.301915     0.508441     0.909657    Uiso  ? O
   O16        1.0     0.273982     0.449771     0.815387    Uiso  ? O
   N15        1.0     0.266415     0.484611     0.812180    Uiso  ? N
   H57        1.0     0.234842     0.555401     0.754400    Uiso  ? H
   C50        1.0     0.215382     0.498241     0.694022    Uiso  ? C
   C51        1.0     0.207155     0.537707     0.684723    Uiso  ? C
   H58        1.0     0.181275     0.444901     0.590388    Uiso  ? H
   C52        1.0     0.174888     0.471707     0.586124    Uiso  ? C
   C53        1.0     0.158015     0.550607     0.572176    Uiso  ? C
   H59        1.0     0.151942     0.577467     0.566019    Uiso  ? H
   H60        1.0     0.070542     0.460967     0.510547    Uiso  ? H
   C54        1.0     0.125382     0.484408     0.472775    Uiso  ? C
   C55        1.0     0.116588     0.524374     0.465721    Uiso  ? C
   H61        1.0     0.094408     0.430101     0.395114    Uiso  ? H
   C56        1.0     0.081022     0.456541     0.357182    Uiso  ? C
   N16        1.0     0.068382     0.538061     0.350288    Uiso  ? N
   H62        1.0     0.063175     0.563067     0.342208    Uiso  ? H
   H63        1.0     0.042308     0.521967     0.283209    Uiso  ? H
   H64        1.0     0.049209     0.460434     0.090340    Uiso  ? H
   O17        1.0     0.301915     0.841775     0.909657    Uiso  ? O
   O18        1.0     0.273982     0.783105     0.815387    Uiso  ? O
   N17        1.0     0.266415     0.817945     0.812180    Uiso  ? N
   H65        1.0     0.234842     0.888735     0.754400    Uiso  ? H
   C57        1.0     0.215382     0.831574     0.694022    Uiso  ? C
   C58        1.0     0.207155     0.871041     0.684723    Uiso  ? C
   H66        1.0     0.181275     0.778234     0.590388    Uiso  ? H
   C59        1.0     0.174888     0.805041     0.586124    Uiso  ? C
   C60        1.0     0.158015     0.883941     0.572176    Uiso  ? C
   H67        1.0     0.151942     0.910801     0.566019    Uiso  ? H
   H68        1.0     0.070542     0.794301     0.510547    Uiso  ? H
   C61        1.0     0.125382     0.817742     0.472775    Uiso  ? C
   C62        1.0     0.116588     0.857708     0.465721    Uiso  ? C
   H69        1.0     0.094408     0.763434     0.395114    Uiso  ? H
   C63        1.0     0.081022     0.789874     0.357182    Uiso  ? C
   N18        1.0     0.068382     0.871395     0.350288    Uiso  ? N
   H70        1.0     0.063175     0.896401     0.342208    Uiso  ? H
   H71        1.0     0.042308     0.855301     0.283209    Uiso  ? H
   H72        1.0     0.049209     0.793768     0.090340    Uiso  ? H
