
#======================================================================
# CRYSTAL DATA
#----------------------------------------------------------------------
data_VESTA_phase_1

_chemical_name_common                  'XCrySDen XSF file'
_cell_length_a                         32.169598
_cell_length_b                         34.723202
_cell_length_c                         7.466110
_cell_angle_alpha                      90.000000
_cell_angle_beta                       130.420029
_cell_angle_gamma                      90.000000
_cell_volume                           6349.248050
_space_group_name_H-M_alt              'P 1'
_space_group_IT_number                 1

loop_
_space_group_symop_operation_xyz
   'x, y, z'
   'x, y+1/3, z'
   'x, y+2/3, z'
   'x+1/3, y, z'
   'x+1/3, y+1/3, z'
   'x+1/3, y+2/3, z'
   'x+2/3, y, z'
   'x+2/3, y+1/3, z'
   'x+2/3, y+2/3, z'

loop_
   _atom_site_label
   _atom_site_occupancy
   _atom_site_fract_x
   _atom_site_fract_y
   _atom_site_fract_z
   _atom_site_adp_type
   _atom_site_U_iso_or_equiv
   _atom_site_type_symbol
   O1         1.0     0.297707     0.216896     0.203039    Uiso  ? O
   O2         1.0     0.325640     0.158226     0.261839    Uiso  ? O
   N1         1.0     0.290140     0.182056     0.201039    Uiso  ? N
   C1         1.0     0.140313     0.142294     0.984937    Uiso  ? C
   C2         1.0     0.149106     0.182260     0.989337    Uiso  ? C
   C3         1.0     0.198614     0.194960     0.060040    Uiso  ? C
   H1         1.0     0.205000     0.221767     0.062700    Uiso  ? H
   C4         1.0     0.239107     0.168427     0.127340    Uiso  ? C
   C5         1.0     0.230880     0.128960     0.121540    Uiso  ? C
   H2         1.0     0.258567     0.111267     0.165000    Uiso  ? H
   C6         1.0     0.181740     0.116060     0.051340    Uiso  ? C
   H3         1.0     0.175667     0.089200     0.047500    Uiso  ? H
