
#======================================================================
# CRYSTAL DATA
#----------------------------------------------------------------------
data_VESTA_phase_1

_chemical_name_common                  '05014'
_cell_length_a                         10.7232(15)
_cell_length_b                         11.5744(16)
_cell_length_c                         7.4661(10)
_cell_angle_alpha                      90.000000
_cell_angle_beta                       130.420(2)
_cell_angle_gamma                      90.000000
_cell_volume                           705.471382
_space_group_name_H-M_alt              'C c'
_space_group_IT_number                 9

loop_
_space_group_symop_operation_xyz
   'x, y, z'
   'x, -y, z+1/2'
   'x+1/2, y+1/2, z'
   'x+1/2, -y+1/2, z+1/2'

loop_
   _atom_site_label
   _atom_site_occupancy
   _atom_site_fract_x
   _atom_site_fract_y
   _atom_site_fract_z
   _atom_site_adp_type
   _atom_site_U_iso_or_equiv
   _atom_site_type_symbol
   O1         1.0     0.8931(2)    0.34931(16)  0.7030(4)   Uani  0.035453 O
   O2         1.0     0.9769(2)    0.52532(16)  0.7618(4)   Uani  0.046794 O
   N1         1.0     0.2763(2)    0.61418(16)  0.4129(4)   Uani  0.027821 N
   H4         1.0     0.260700     0.689200     0.407900    Uiso  0.033000 H
   H5         1.0     0.198100     0.565900     0.371100    Uiso  0.033000 H
   N2         1.0     0.8704(2)    0.45383(18)  0.7010(4)   Uani  0.027672 N
   C1         1.0     0.4209(4)    0.5731(2)    0.4849(4)   Uani  0.021662 C
   C2         1.0     0.4473(2)    0.45322(18)  0.4893(4)   Uani  0.021325 C
   C3         1.0     0.5958(4)    0.4151(2)    0.5600(4)   Uani  0.022596 C
   H1         1.0     0.615000     0.334700     0.562700    Uiso  0.027000 H
   C4         1.0     0.7173(2)    0.4947(2)    0.6273(4)   Uani  0.022547 C
   C5         1.0     0.6926(4)    0.6131(2)    0.6215(4)   Uani  0.024419 C
   H2         1.0     0.775700     0.666200     0.665000    Uiso  0.029000 H
   C6         1.0     0.5452(2)    0.6518(2)    0.5513(4)   Uani  0.024808 C
   H3         1.0     0.527000     0.732400     0.547500    Uiso  0.030000 H
   C7         1.0     0.3142(4)    0.3696(2)    0.4172(4)   Uani  0.027335 C
   H6         1.0     0.354400     0.290300     0.440900    Uiso  0.041000 H
   H7         1.0     0.218800     0.381300     0.250800    Uiso  0.041000 H
   H8         1.0     0.282800     0.382900     0.512900    Uiso  0.041000 H

loop_
   _atom_site_aniso_label
   _atom_site_aniso_U_11
   _atom_site_aniso_U_22
   _atom_site_aniso_U_33
   _atom_site_aniso_U_12
   _atom_site_aniso_U_13
   _atom_site_aniso_U_23
   O1	 0.02930  0.02950  0.05000  0.00650  0.02680  0.00180
   O2	 0.02420  0.03920  0.07620 -0.00350  0.03220 -0.00440
   N1	 0.02040  0.02520  0.03710  0.00260  0.01830  0.00000
   N2	 0.01860  0.03090  0.03430  0.00230  0.01750  0.00120
   C1	 0.01930  0.02580  0.02040  0.00040  0.01310  0.00050
   C2	 0.01850  0.02390  0.01990 -0.00270  0.01170 -0.00250
   C3	 0.02110  0.02210  0.02600  0.00080  0.01590  0.00030
   C4	 0.01710  0.02600  0.02480  0.00220  0.01370  0.00000
   C5	 0.02090  0.02590  0.02600 -0.00340  0.01500 -0.00080
   C6	 0.02160  0.02260  0.02750  0.00160  0.01470 -0.00040
   C7	 0.02240  0.02830  0.03570 -0.00520  0.02080 -0.00540
