##CIF_1.1

data_sm_global
#Used dictionaries
loop_
_audit_conform_dict_name
_audit_conform_dict_version
_audit_conform_dict_location
cif_core.dic 	2.4.2 	.
cif_pd.dic 		1.0.1 	.
cif_sm.dic 		0.1 	'redaktion.landolt-boernstein(at)springer.com'

#About this content and reference
_sm_credits_copyright
;PAULING FILE Multinaries Edition - 2012. SpringerMaterials Release 2014.
http://www.paulingfile.com
Unique LPF ID Number SD0452697
Project Coordinator: Shuichi Iwata
Section-Editors: Karin Cenzual (Crystal Structures), Hiroaki Okamoto (Phase 
Diagrams), Fritz Hulliger (Physical Properties)
(c) Springer & Material Phases Data System (MPDS), Switzerland & National 
Institute for Materials Science (NIMS), Japan 2014.
(Data generated pre-2002: (c) Springer & MPDS & NIMS; 
post-2001: (c) Springer & MPDS)
All Rights Reserved. Version 2014.06.
;

_audit_creation_method
;This data have been compiled from the crystallographic datasheet for 
"TaAs Crystal Structure" 
taken from SpringerMaterials (sm_isp_sd_0452697).
;

_publ_section_references
;Furuseth S., Selte K., Kjekshus A.: <i>On the Arsenides and Antimonides of Tantalum</i>. Acta Chemica Scandinavica (1947-1973) <b>19</b> (1965) 95-106.
;

#Phase classification
_sm_phase_labels				'TaAs'
_chemical_name_mineral			''
_sm_chemical_compound_class		'arsenide'
_sm_phase_prototype				'NbAs'
_sm_pearson_symbol				'tI8'
_symmetry_Int_Tables_number		109
_sm_sample_details
;sample prepared from Ta, As, 
powder (determination of cell and structural parameters)
;
_sm_measurement_details
;Guinier film (determination of cell and structural parameters), 
X-rays, Cu K&#x03b1;<sub>1</sub>; &#x03bb; = 0.154050 nm (determination of cell and structural parameters)
;
_sm_interpretation_details
;complete structure determined, 
trial-and-error
;

data_sm_isp_SD0452697-standardized_unitcell
#Cell Parameters
_cell_length_a					3.4348
_cell_length_b					3.4348
_cell_length_c					11.641
_cell_angle_alpha				90
_cell_angle_beta				90
_cell_angle_gamma				90
_sm_length_ratio_ab				1.000
_sm_length_ratio_bc				0.295
_sm_length_ratio_ca				3.389
_cell_volume 					137.34
_symmetry_space_group_name_H-M	'I41md'
_symmetry_Int_Tables_number		109
_cell_formula_units_Z			4
_sm_cell_transformation
;No transformation from published to standardized cell parameters necessary.
;

#Atom Coordinates
loop_
_atom_site_label
_atom_site_type_symbol
_atom_site_Wyckoff_symbol
_sm_site_symmetry
_atom_site_fract_x
_atom_site_fract_y
_atom_site_fract_z
_atom_site_occupancy
_sm_coordination_number
_sm_atomic_environment_type
Ta 'Ta' .4a .2mm. 0 0 0 1 6 'trigonal prism, As<sub>6</sub>'
As 'As' .4a .2mm. 0 0 0.417 1 6 'trigonal prism, Ta<sub>6</sub>'

_sm_atom_site_transformation
;No transformation from published to standardized cell parameters necessary.
;

data_sm_isp_SD0452697-published_cell
#Cell Parameters
_cell_length_a					3.4348
_cell_length_b					3.4348
_cell_length_c					11.641
_cell_angle_alpha				90
_cell_angle_beta				90
_cell_angle_gamma				90
_sm_length_ratio_ab				1.000
_sm_length_ratio_bc				0.295
_sm_length_ratio_ca				3.389
_cell_volume 					137.34
_symmetry_space_group_name_H-M	'I41md'
_symmetry_Int_Tables_number		109
_cell_formula_units_Z			4

#Atom Coordinates
loop_
_atom_site_label
_atom_site_type_symbol
_atom_site_Wyckoff_symbol
_sm_site_symmetry
_atom_site_fract_x
_atom_site_fract_y
_atom_site_fract_z
_atom_site_occupancy
_sm_coordination_number
_sm_atomic_environment_type
Ta 'Ta' .4a .2mm. 0 0 0 1 ? '?'
As 'As' .4a .2mm. 0 0 0.417 1 ? '?'

data_sm_isp_SD0452697-niggli_reduced_cell
#Cell Parameters
_cell_length_a					3.4348
_cell_length_b					3.4348
_cell_length_c					6.3069
_cell_angle_alpha				105.801
_cell_angle_beta				105.801
_cell_angle_gamma				90
_sm_length_ratio_ab				1.000
_sm_length_ratio_bc				0.545
_sm_length_ratio_ca				1.836
_cell_volume 					68.67
_symmetry_space_group_name_H-M	''
_symmetry_Int_Tables_number		?
_cell_formula_units_Z			4

#Atom Coordinates
loop_
_atom_site_label
_atom_site_type_symbol
_atom_site_Wyckoff_symbol
_sm_site_symmetry
_atom_site_fract_x
_atom_site_fract_y
_atom_site_fract_z
_atom_site_occupancy
_sm_coordination_number
_sm_atomic_environment_type
? ? ? ? ? ? ? ? ? ?

data_sm_isp_SD0452697-powder_pattern
#Powder Pattern
#Note: Powder patterns are provided using custom cif-fields!
loop_
_sm_powderpattern_unit_published_line
_sm_powderpattern_value_published_line
_sm_powderpattern_unit_computed_line
_sm_powderpattern_value_computed_line
_sm_powderpattern_intensity
_sm_powderpattern_miller_indices_h
_sm_powderpattern_miller_indices_k
_sm_powderpattern_miller_indices_l
_sm_powderpattern_radiation
_sm_powderpattern_remark
'sin<sup>2</sup>(&#x03b8;)' 5462 'd' 0.3296 5 1 0 1 'Cu K&#x03b1;<sub>1</sub>' ''
'sin<sup>2</sup>(&#x03b8;)' 6995 'd' 0.2912 5 0 0 4 'Cu K&#x03b1;<sub>1</sub>' ''
'sin<sup>2</sup>(&#x03b8;)' 8965 'd' 0.2573 5 1 0 3 'Cu K&#x03b1;<sub>1</sub>' ''
'sin<sup>2</sup>(&#x03b8;)' 11806 'd' 0.2242 8 1 1 2 'Cu K&#x03b1;<sub>1</sub>' ''
'sin<sup>2</sup>(&#x03b8;)' 15968 'd' 0.1928 3 1 0 5 'Cu K&#x03b1;<sub>1</sub>' ''
'sin<sup>2</sup>(&#x03b8;)' 20107 'd' 0.1718 5 2 0 0 'Cu K&#x03b1;<sub>1</sub>' ''
'sin<sup>2</sup>(&#x03b8;)' 25582 'd' 0.1523 3 2 1 1 'Cu K&#x03b1;<sub>1</sub>' ''
'sin<sup>2</sup>(&#x03b8;)' 25819 'd' 0.1516 3 1 1 6 'Cu K&#x03b1;<sub>1</sub>' ''
'sin<sup>2</sup>(&#x03b8;)' 26487 'd' 0.1497 3 1 0 7 'Cu K&#x03b1;<sub>1</sub>' ''
'sin<sup>2</sup>(&#x03b8;)' 27118 'd' 0.1479 5 2 0 4 'Cu K&#x03b1;<sub>1</sub>' ''
'sin<sup>2</sup>(&#x03b8;)' 28027 'd' 0.1455 2 0 0 8 'Cu K&#x03b1;<sub>1</sub>' ''
'sin<sup>2</sup>(&#x03b8;)' 29083 'd' 0.1428 3 2 1 3 'Cu K&#x03b1;<sub>1</sub>' ''

