
#======================================================================
# CRYSTAL DATA
#----------------------------------------------------------------------
data_VESTA_phase_1

_chemical_name_common                  'Ta4 As4'
_cell_length_a                         3.469614
_cell_length_b                         3.469614
_cell_length_c                         11.734890
_cell_angle_alpha                      90.000000
_cell_angle_beta                       90.000000
_cell_angle_gamma                      90.000000
_cell_volume                           141.267205
_space_group_name_H-M_alt              'I 41 m d'
_space_group_IT_number                 109

loop_
_space_group_symop_operation_xyz
   'x, y, z'
   '-x+1/2, -y+1/2, z+1/2'
   '-y, x+1/2, z+1/4'
   'y+1/2, -x, z+3/4'
   'x, -y, z'
   '-x+1/2, y+1/2, z+1/2'
   '-y, -x+1/2, z+1/4'
   'y+1/2, x, z+3/4'
   'x+1/2, y+1/2, z+1/2'
   '-x, -y, z'
   '-y+1/2, x, z+3/4'
   'y, -x+1/2, z+1/4'
   'x+1/2, -y+1/2, z+1/2'
   '-x, y, z'
   '-y+1/2, -x, z+3/4'
   'y, x+1/2, z+1/4'

loop_
   _atom_site_label
   _atom_site_occupancy
   _atom_site_fract_x
   _atom_site_fract_y
   _atom_site_fract_z
   _atom_site_adp_type
   _atom_site_U_iso_or_equiv
   _atom_site_type_symbol
   Ta0        1.0     0.500000     0.000000     0.249936    Uiso  ? Ta
   Ta1        1.0     0.500000     0.500000     0.999936    Uiso  ? Ta
   Ta2        1.0     0.000000     0.500000     0.749936    Uiso  ? Ta
   Ta3        1.0     0.000000     0.000000     0.499936    Uiso  ? Ta
   As4        1.0     0.000000     0.500000     0.167764    Uiso  ? As
   As5        1.0     0.000000     0.000000     0.917764    Uiso  ? As
   As6        1.0     0.500000     0.000000     0.667764    Uiso  ? As
   As7        1.0     0.500000     0.500000     0.417764    Uiso  ? As
