
#======================================================================
# CRYSTAL DATA
#----------------------------------------------------------------------
data_VESTA_phase_1

_chemical_name_common                  'C H4 N2 O'
_cell_length_a                         11.130000
_cell_length_b                         11.130000
_cell_length_c                         4.684000
_cell_angle_alpha                      90.000000
_cell_angle_beta                       90.000000
_cell_angle_gamma                      90.000000
_cell_volume                           580.239413
_space_group_name_H-M_alt              'P -4 21 m'
_space_group_IT_number                 113

loop_
_space_group_symop_operation_xyz
   'x, y, z'
   '-x, -y, z'
   'y, -x, -z'
   '-y, x, -z'
   '-x+1/4, y+1/4, -z'
   'x+1/4, -y+1/4, -z'
   '-y+1/4, -x+1/4, z'
   'y+1/4, x+1/4, z'
   'x, y+1/2, z'
   '-x, -y+1/2, z'
   'y+1/2, -x, -z'
   '-y+1/2, x, -z'
   '-x+1/4, y+3/4, -z'
   'x+1/4, -y+3/4, -z'
   '-y+3/4, -x+1/4, z'
   'y+3/4, x+1/4, z'
   'x+1/2, y, z'
   '-x+1/2, -y, z'
   'y, -x+1/2, -z'
   '-y, x+1/2, -z'
   '-x+3/4, y+1/4, -z'
   'x+3/4, -y+1/4, -z'
   '-y+1/4, -x+3/4, z'
   'y+1/4, x+3/4, z'
   'x+1/2, y+1/2, z'
   '-x+1/2, -y+1/2, z'
   'y+1/2, -x+1/2, -z'
   '-y+1/2, x+1/2, -z'
   '-x+3/4, y+3/4, -z'
   'x+3/4, -y+3/4, -z'
   '-y+3/4, -x+3/4, z'
   'y+3/4, x+3/4, z'

loop_
   _atom_site_label
   _atom_site_occupancy
   _atom_site_fract_x
   _atom_site_fract_y
   _atom_site_fract_z
   _atom_site_adp_type
   _atom_site_U_iso_or_equiv
   _atom_site_type_symbol
   C          1.0     0.000000     0.250000     0.326000    Uani  0.005367 C
   H1         1.0     0.128750     0.378750     0.282700    Uani  0.024633 H
   H2         1.0     0.072050     0.322050     0.962000    Uani  0.023467 H
   N          1.0     0.072950     0.322950     0.176600    Uani  0.009500 N
   O          1.0     0.000000     0.250000     0.595300    Uani  0.006867 O

loop_
   _atom_site_aniso_label
   _atom_site_aniso_U_11
   _atom_site_aniso_U_22
   _atom_site_aniso_U_33
   _atom_site_aniso_U_12
   _atom_site_aniso_U_13
   _atom_site_aniso_U_23
   C	 0.00630  0.00630  0.00350  0.00020  0.00000  0.00000
   H1	 0.02770  0.02770  0.01850 -0.01430 -0.00290 -0.00290
   H2	 0.02940  0.02940  0.01160 -0.00940  0.00150  0.00150
   N	 0.01130  0.01130  0.00590 -0.00520  0.00040  0.00040
   O	 0.00870  0.00870  0.00320  0.00020  0.00000  0.00000
