
#======================================================================
# CRYSTAL DATA
#----------------------------------------------------------------------
data_VESTA_phase_1

_chemical_name_common                  'C H4 N2 O'
_cell_length_a                         16.983000
_cell_length_b                         16.983000
_cell_length_c                         14.136000
_cell_angle_alpha                      90.000000
_cell_angle_beta                       90.000000
_cell_angle_gamma                      90.000000
_cell_volume                           4077.137290
_space_group_name_H-M_alt              'P 1'
_space_group_IT_number                 1

loop_
_space_group_symop_operation_xyz
   'x, y, z'
   'x, y, z+1/3'
   'x, y, z+2/3'
   'x, y+1/3, z'
   'x, y+1/3, z+1/3'
   'x, y+1/3, z+2/3'
   'x, y+2/3, z'
   'x, y+2/3, z+1/3'
   'x, y+2/3, z+2/3'
   'x+1/3, y, z'
   'x+1/3, y, z+1/3'
   'x+1/3, y, z+2/3'
   'x+1/3, y+1/3, z'
   'x+1/3, y+1/3, z+1/3'
   'x+1/3, y+1/3, z+2/3'
   'x+1/3, y+2/3, z'
   'x+1/3, y+2/3, z+1/3'
   'x+1/3, y+2/3, z+2/3'
   'x+2/3, y, z'
   'x+2/3, y, z+1/3'
   'x+2/3, y, z+2/3'
   'x+2/3, y+1/3, z'
   'x+2/3, y+1/3, z+1/3'
   'x+2/3, y+1/3, z+2/3'
   'x+2/3, y+2/3, z'
   'x+2/3, y+2/3, z+1/3'
   'x+2/3, y+2/3, z+2/3'

loop_
   _atom_site_label
   _atom_site_occupancy
   _atom_site_fract_x
   _atom_site_fract_y
   _atom_site_fract_z
   _atom_site_adp_type
   _atom_site_U_iso_or_equiv
   _atom_site_type_symbol
   C1         1.0     0.000000     0.166667     0.1110(4)   Uiso  ? C
   C1         1.0     0.166667     0.000000     0.2223(4)   Uiso  ? C
   O1         1.0     0.000000     0.166667     0.1989(4)   Uiso  ? O
   O1         1.0     0.166667     0.000000     0.1344(4)   Uiso  ? O
   N1         1.0     0.0480(3)    0.2146(3)    0.06107(17) Uiso  ? N
   N1         1.0     0.2854(3)    0.1187(3)    0.06107(17) Uiso  ? N
   N1         1.0     0.2146(3)    0.2854(3)    0.27227(17) Uiso  ? N
   N1         1.0     0.1187(3)    0.0480(3)    0.27227(17) Uiso  ? N
   H1         1.0     0.0841(9)    0.2507(9)    0.0946(7)   Uiso  ? H
   H1         1.0     0.2493(9)    0.0826(9)    0.0946(7)   Uiso  ? H
   H1         1.0     0.2507(9)    0.2493(9)    0.2387(7)   Uiso  ? H
   H1         1.0     0.0826(9)    0.0841(9)    0.2387(7)   Uiso  ? H
   H2         1.0     0.0455(7)    0.2122(7)    0.3241(5)   Uiso  ? H
   H2         1.0     0.2878(7)    0.1212(7)    0.3241(5)   Uiso  ? H
   H2         1.0     0.2122(7)    0.2878(7)    0.0092(5)   Uiso  ? H
   H2         1.0     0.1212(7)    0.0455(7)    0.0092(5)   Uiso  ? H
