
#======================================================================
# CRYSTAL DATA
#----------------------------------------------------------------------
data_VESTA_phase_1

_chemical_name_common                  'C H4 N2 O'
_cell_length_a                         22.643999
_cell_length_b                         22.643999
_cell_length_c                         18.848000
_cell_angle_alpha                      90.000000
_cell_angle_beta                       90.000000
_cell_angle_gamma                      90.000000
_cell_volume                           9664.324885
_space_group_name_H-M_alt              'P 1'
_space_group_IT_number                 1

loop_
_space_group_symop_operation_xyz
   'x, y, z'
   'x, y, z+1/4'
   'x, y, z+1/2'
   'x, y, z+3/4'
   'x, y+1/4, z'
   'x, y+1/4, z+1/4'
   'x, y+1/4, z+1/2'
   'x, y+1/4, z+3/4'
   'x, y+1/2, z'
   'x, y+1/2, z+1/4'
   'x, y+1/2, z+1/2'
   'x, y+1/2, z+3/4'
   'x, y+3/4, z'
   'x, y+3/4, z+1/4'
   'x, y+3/4, z+1/2'
   'x, y+3/4, z+3/4'
   'x+1/4, y, z'
   'x+1/4, y, z+1/4'
   'x+1/4, y, z+1/2'
   'x+1/4, y, z+3/4'
   'x+1/4, y+1/4, z'
   'x+1/4, y+1/4, z+1/4'
   'x+1/4, y+1/4, z+1/2'
   'x+1/4, y+1/4, z+3/4'
   'x+1/4, y+1/2, z'
   'x+1/4, y+1/2, z+1/4'
   'x+1/4, y+1/2, z+1/2'
   'x+1/4, y+1/2, z+3/4'
   'x+1/4, y+3/4, z'
   'x+1/4, y+3/4, z+1/4'
   'x+1/4, y+3/4, z+1/2'
   'x+1/4, y+3/4, z+3/4'
   'x+1/2, y, z'
   'x+1/2, y, z+1/4'
   'x+1/2, y, z+1/2'
   'x+1/2, y, z+3/4'
   'x+1/2, y+1/4, z'
   'x+1/2, y+1/4, z+1/4'
   'x+1/2, y+1/4, z+1/2'
   'x+1/2, y+1/4, z+3/4'
   'x+1/2, y+1/2, z'
   'x+1/2, y+1/2, z+1/4'
   'x+1/2, y+1/2, z+1/2'
   'x+1/2, y+1/2, z+3/4'
   'x+1/2, y+3/4, z'
   'x+1/2, y+3/4, z+1/4'
   'x+1/2, y+3/4, z+1/2'
   'x+1/2, y+3/4, z+3/4'
   'x+3/4, y, z'
   'x+3/4, y, z+1/4'
   'x+3/4, y, z+1/2'
   'x+3/4, y, z+3/4'
   'x+3/4, y+1/4, z'
   'x+3/4, y+1/4, z+1/4'
   'x+3/4, y+1/4, z+1/2'
   'x+3/4, y+1/4, z+3/4'
   'x+3/4, y+1/2, z'
   'x+3/4, y+1/2, z+1/4'
   'x+3/4, y+1/2, z+1/2'
   'x+3/4, y+1/2, z+3/4'
   'x+3/4, y+3/4, z'
   'x+3/4, y+3/4, z+1/4'
   'x+3/4, y+3/4, z+1/2'
   'x+3/4, y+3/4, z+3/4'

loop_
   _atom_site_label
   _atom_site_occupancy
   _atom_site_fract_x
   _atom_site_fract_y
   _atom_site_fract_z
   _atom_site_adp_type
   _atom_site_U_iso_or_equiv
   _atom_site_type_symbol
   C1         1.0     0.000000     0.125000     0.0833(3)   Uiso  ? C
   C1         1.0     0.125000     0.000000     0.1667(3)   Uiso  ? C
   O1         1.0     0.000000     0.125000     0.1492(3)   Uiso  ? O
   O1         1.0     0.125000     0.000000     0.1008(3)   Uiso  ? O
   N1         1.0     0.0360(3)    0.1610(3)    0.04580(13) Uiso  ? N
   N1         1.0     0.2140(3)    0.0890(3)    0.04580(13) Uiso  ? N
   N1         1.0     0.1610(3)    0.2140(3)    0.20420(13) Uiso  ? N
   N1         1.0     0.0890(3)    0.0360(3)    0.20420(13) Uiso  ? N
   H1         1.0     0.0631(7)    0.1881(7)    0.0710(6)   Uiso  ? H
   H1         1.0     0.1869(7)    0.0619(7)    0.0710(6)   Uiso  ? H
   H1         1.0     0.1881(7)    0.1869(7)    0.1790(6)   Uiso  ? H
   H1         1.0     0.0619(7)    0.0631(7)    0.1790(6)   Uiso  ? H
   H2         1.0     0.0341(5)    0.1591(5)    0.2431(4)   Uiso  ? H
   H2         1.0     0.2159(5)    0.0909(5)    0.2431(4)   Uiso  ? H
   H2         1.0     0.1591(5)    0.2159(5)    0.0069(4)   Uiso  ? H
   H2         1.0     0.0909(5)    0.0341(5)    0.0069(4)   Uiso  ? H
